 ****** HSPICE -- A-2008.03-SP1 32-BIT (May 26 2008) winnt ******               
  Copyright (C) 2008 Synopsys, Inc. All Rights Reserved.                        
  Unpublished-rights reserved under US copyright laws.
  This program is protected by law and is subject to the 
  terms and conditions of the license agreement found in:
    D:\synopsys\Hspice_A-2008.03-SP1\license.warn
  Use of this program is your acceptance to be bound by this 
  license agreement. HSPICE is the trademark of Synopsys, Inc.
  Input File: e:\program\ese\hspice\vlsi\nor\nor.sp                             
 Init: read install configuration file: D:\synopsys\Hspice_A-2008.03-SP1\meta.cfg
 Init: hspice initialization file: D:\synopsys\Hspice_A-2008.03-SP1\hspice.ini




  **warning** (E:\Program\ESE\Hspice\TD-LO18-SP-2003v4R\l018ll_io50_v1p3.mdl:50)  associated with encrypted blocks were suppressed due to encrypted content
 .temp 25

 .subckt nor ina inb out vdd vss
 m0 aob ina vdd vdd p18ll w=2.0u l=0.25u
 m1 out inb aob vdd p18ll w=2.0u l=0.25u
 m2 out ina vss vss n18ll w=0.25u l=0.25u
 m3 out inb vss vss n18ll w=0.25u l=0.25u
 .ends

 x1 ina inb out vdd vss nor
 c1 out vss 0.2pf

 vdd vdd 0 dc 'vddvalue_vdd'
 .param vddvalue_vdd=1.8v

 vss vss 0 dc 'vddvalue_vss'
 .param vddvalue_vss=0v

 vin1 ina 0 pwl 30ns 0v , 31ns 1.8v, 50ns 1.8v, 51ns 0v
 vin2 inb 0 pwl 10ns 0v ,11ns 1.8v, 40ns 1.8v, 41ns 0v

 .tran 1ns 80ns
 .ic q 0v
 .probe v(out) v(in)

 ***********************************************************************
 ** runlvl is invoked, you can disable it by:
      a) Add option runlvl=0 to your current simulation job.
      b) Copy $installdir/hspice.ini to your HOME directory and
         customize it by adding option runlvl=0, which disables
         it for all of your simulation jobs.
      c) Re-invoke $installdir/bin/config program and unselect the
         option runlvl setting in box 'hspice.ini' which disables
         it for whole group simulation jobs.

 ** runlvl is invoked, some options are ignored or automatically set:
      Options below are automatically set(user setting will overwrite them):
      if runlvl=[1|2|3|4|5|6],  .option bypass=2

      Options below are ignored, they are replaced by automated algorithms:
        lvltim    dvdt      ft    fast   trtol  absvar  relvar
          relq  chgtol    dvtr    imin    itl3    rmax

 ** runlvl is invoked, actual option value used by HSPICE are:
       runlvl= 3       bypass= 2      mbypass=   2.00   bytol= 100.00u
 ***********************************************************************

1****** HSPICE -- A-2008.03-SP1 32-BIT (May 26 2008) winnt ******               
 ******  
 **nor***

  ******  circuit name directory
 circuit number to circuit name directory
   number circuitname                     definition         multiplier
        0 main circuit
        1 x1.                             nor                1.00 

 **warning** dc voltage reset to initial transient source value
             in source        0:vin1                new dc=  0.0000D+00


 **warning** dc voltage reset to initial transient source value
             in source        0:vin2                new dc=  0.0000D+00

 

 **warning**  attempt to reference undefined node     0:in              
  in the definition of v(in,0)
   branch - output ignored

 
      
  Opening plot unit= 79
 file=e:\program\ese\hspice\vlsi\nor\nor.pa0                                   

1****** HSPICE -- A-2008.03-SP1 32-BIT (May 26 2008) winnt ******               
 ******  
 **nor***

  ******  operating point information tnom=  25.000 temp=  25.000 *****
 ***** operating point status is voltage   simulation time is     0.     
    node    =voltage      node    =voltage      node    =voltage

 +0:ina     =   0.      0:inb     =   0.      0:out     =   1.8000 
 +0:vdd     =   1.8000  0:vss     =   0.      1:aob     =   1.8000 


          ***** job concluded
1****** HSPICE -- A-2008.03-SP1 32-BIT (May 26 2008) winnt ******               
 ******  
 **nor***

  ******  job statistics summary tnom=  25.000 temp=  25.000 *****

  ******  Circuit Statistics  ******
  # nodes       =      15  # elements   =       9
  # resistors   =       0  # capacitors =       1  # inductors   =       0
  # mutual_inds =       0  # vccs       =       0  # vcvs        =       0
  # cccs        =       0  # ccvs       =       0  # volt_srcs   =       4
  # curr_srcs   =       0  # diodes     =       0  # bjts        =       0
  # jfets       =       0  # mosfets    =       4  # U elements  =       0
  # T elements  =       0  # W elements =       0  # B elements  =       0
  # S elements  =       0  # P elements =       0  # va device   =       0


  ******  Runtime Statistics (seconds)  ******
  analysis           time    # points   tot. iter  conv.iter
  op point           0.00           1           7
  transient          0.05          81         200          77 rev=         7
  readin             0.02
  errchk             0.00
  setup              0.00
  output             0.00


           total memory used          165  kbytes
           total cpu time            0.08 seconds
           total elapsed time           1 seconds
           job started at     13:32:28 12/23/2014
           job ended   at     13:32:28 12/23/2014


 Init: hspice initialization file: D:\synopsys\Hspice_A-2008.03-SP1\hspice.ini
